LAMMPS (29 Sep 2021 - Update 2)
variable        NSTEPS          equal 25000
variable        THERMO_FREQ     equal 100
# variable        DUMP_FREQ       equal 10000
variable        dt              equal 0.002
variable        PRES            equal 28000.000000
variable        TAU_T           equal 100*0.002
variable        TAU_P           equal 1000*0.002
# variable        restart         equal 0

# ---------------------- INITIALIZAITION ------------------
units           metal
boundary        p p p
atom_style      atomic
# restart         5000 pto.rest1 pto.rest2
#read_restart   pto.rest1

# --------------------- ATOM DEFINITION ------------------
read_data       conf.lmp
Reading data file ...
  orthogonal box = (0.0000000 0.0000000 0.0000000) to (156.40000 78.200000 82.000000)
  reading atoms ...
  80000 atoms
replicate       1 1 1
Replicating atoms ...
  orthogonal box = (0.0000000 0.0000000 0.0000000) to (156.40000 78.200000 82.000000)
  80000 atoms
  replicate CPU = 0.011 seconds
# change_box all x scale 1.022 y scale 1.022 z scale 1.022 remap
mass            1 15.999400
mass            2 207.200000
mass            3 47.867000
# --------------------- FORCE FIELDS ---------------------
pair_style      deepmd frozen_model.pb
Summary of lammps deepmd module ...
  >>> Info of deepmd-kit:
  installed to:       /home/pinchenx/data.gpfs/envs/dp-dev
  source:             v2.0.2-62-g1f4dc3a
  source branch:       devel
  source commit:      1f4dc3a
  source commit at:   2022-01-11 08:28:35 +0800
  surpport model ver.:1.1
  build float prec:   double
  build with tf inc:  /home/pinchenx/data.gpfs/envs/dp-dev/include;/home/pinchenx/data.gpfs/envs/dp-dev/include
  build with tf lib:  /home/pinchenx/data.gpfs/envs/dp-dev/lib/libtensorflow_cc.so;/home/pinchenx/data.gpfs/envs/dp-dev/lib/libtensorflow_framework.so
  set tf intra_op_parallelism_threads: 0
  set tf inter_op_parallelism_threads: 0
  >>> Info of lammps module:
  use deepmd-kit at:  /home/pinchenx/data.gpfs/envs/dp-dev
  source:             v2.0.2-62-g1f4dc3a
  source branch:      devel
  source commit:      1f4dc3a
  source commit at:   2022-01-11 08:28:35 +0800
  build float prec:   double
  build with tf inc:  /home/pinchenx/data.gpfs/envs/dp-dev/include;/home/pinchenx/data.gpfs/envs/dp-dev/include
  build with tf lib:  /home/pinchenx/data.gpfs/envs/dp-dev/lib/libtensorflow_cc.so;/home/pinchenx/data.gpfs/envs/dp-dev/lib/libtensorflow_framework.so
pair_coeff      * *
# --------------------- MD SETTINGS ----------------------
neighbor        1.0 bin
timestep        0.002
thermo          100
thermo_style    custom step temp pe ke etotal press vol density lx ly lz
#------------------------ GROUPS -----------------------
region          inner block 8 148.4 INF INF  INF INF  units box
group           sys  region inner
71200 atoms in group sys
group           env  subtract all sys
8800 atoms in group env
# --------------------- thermo SETTINGS ----------------------
velocity        all create 300 26562 dist gaussian
fix             mzero all momentum 1000 linear 1 1 1

# run             10000
# unfix           init
# reset_timestep 	0

fix             relax1   all plumed plumedfile plumed.efield.dat outfile plumed.relax.out
fix             relax2   all npt temp 300 300 0.2 z 28000 28000 2
run             25000

CITE-CITE-CITE-CITE-CITE-CITE-CITE-CITE-CITE-CITE-CITE-CITE-CITE

Your simulation uses code contributions which should be cited:

- USER-DEEPMD package:

@article{Wang_ComputPhysCommun_2018_v228_p178,
  author = {Wang, Han and Zhang, Linfeng and Han, Jiequn and E, Weinan},
  doi = {10.1016/j.cpc.2018.03.016},
  url = {https://doi.org/10.1016/j.cpc.2018.03.016},
  year = 2018,
  month = {jul},
  publisher = {Elsevier {BV}},
  volume = 228,
  journal = {Comput. Phys. Commun.},
  title = {{DeePMD-kit: A deep learning package for many-body potential energy representation and molecular dynamics}},
  pages = {178--184}
}

CITE-CITE-CITE-CITE-CITE-CITE-CITE-CITE-CITE-CITE-CITE-CITE-CITE

  update every 1 steps, delay 10 steps, check yes
Step Temp PotEng KinEng TotEng Press Volume Density Lx Ly Lz
0          300    -70540877    3102.2047    -70537775    -2459.337    1002899.4    8.0287467        156.4         78.2           82
Averages over the last 126 of 251 rows, steps 12500 to 25000:
Temp PotEng KinEng TotEng Press Volume Density Lx Ly Lz
300.003 -7.05378e+07 3102.24 -7.05347e+07 20520.1 988872 8.14264 156.4 78.2 80.8531
Loop time of 9641.79 on 1 procs for 25000 steps with 80000 atoms
